<?xml version="1.0"?>
<!-- generated on 2015-02-09 21:24:50.202588 by $Id: randomTrips.py 17235 2014-11-03 10:53:02Z behrisch $
  options: -n oldenburg.net.xml -e 5 -l -r oldenburg.rou.xml
-->
<trips>
    <trip id="0" depart="0.00" from="4950166#2" to="20813607" />
    <trip id="1" depart="1.00" from="263148643" to="-233509182" />
    <trip id="2" depart="2.00" from="262724777" to="85546904" />
    <trip id="3" depart="3.00" from="27342962#2" to="27118705" />
    <trip id="4" depart="4.00" from="112283670" to="35388150" />
</trips>