<configuration>
	<input>
		<net-file value="harkebruegge.net.xml"/>
		<route-files value="harkebruegge.rou.xml"/>
		<gui-settings-file value="harkebruegge.settings.xml"/>
	</input>
	<time>
		<begin value="0"/>
		<end value="1000"/>
	</time>
</configuration>