<?xml version="1.0" encoding="UTF-8"?>

<!-- generated on Mon Feb  9 18:26:59 2015 by SUMO duarouter Version 0.22.0
<?xml version="1.0" encoding="UTF-8"?>

<configuration xmlns:xsi="http://www.w3.org/2001/XMLSchema-instance" xsi:noNamespaceSchemaLocation="http://sumo.dlr.de/xsd/duarouterConfiguration.xsd">

    <input>
        <net-file value="oldenburg.net.xml"/>
        <trip-files value="trips.trips.xml"/>
    </input>

    <output>
        <output-file value="oldenburg.rou.xml"/>
    </output>

    <processing>
        <ignore-errors value="true"/>
    </processing>

    <time>
        <begin value="0"/>
        <end value="50.0"/>
    </time>

    <report>
        <no-step-log value="true"/>
    </report>

</configuration>
-->

<routes xmlns:xsi="http://www.w3.org/2001/XMLSchema-instance" xsi:noNamespaceSchemaLocation="http://sumo.dlr.de/xsd/routes_file.xsd">
    <vehicle id="0" depart="0.00">
        <route edges="18494048#1 -33168504 -18494049 -18494048#0 -18494047#5 -18494047#4 -18494047#3 -18494047#2 -18494047#1 -18494047#0 61316310#1 -29371173 -24796360 -255591963#4 -255591963#3 -255591963#2 -255591963#1 -255591963#0 -24496062 -112652444 -255720256 -175489524 -28640420#2 -28640420#1 -28640420#0 -41592893 -31013442#1 -31013442#0 113208018#0"/>
    </vehicle>
    <vehicle id="1" depart="1.00">
        <route edges="24654352#0 -24654352#0 25671346#2 -171077758#0 -24586707 -182897080 -30008123 32048631 24586726 250500372 250500373 25689531 24511102 25673323 24511104 25673150 25673149 24511108 79387373 200596940 200596935 24546185 27844799 27844800 24546180 28196988 28196991#0 28196991#1 28197205 28197202#0 28197202#1 28197202#2 28197256 28197255 22650054 22650055 28197387 28197388 220882576 28197408 19796589#0 19796589#1 19796589#2 19796589#3 130458039 22459749 22459658 22459671 22459703 22459719 233729014 233729006 15727682 233729019 19796596 233743103 19796594 233743104 233743101 237411941 237411942 233744335 9471173 -233744341 233744340 225726508#1 22463151 233744336 22463150 222718169 225708823 222718167 31345000#0 31345000#1 31345000#2 31345000#3 124315107#0 124315107#1 124315107#2 124315104 -133654158#1 133654158#1"/>
    </vehicle>
    <vehicle id="2" depart="2.00">
        <route edges="31112781#1 -31112781#1 -31112781#0 -26575318#0 -24784113#1 -24784113#0 -26192517#12 -26192517#11 -26192517#10 -26192517#9 -25886353#5 -25886353#4 -25886353#3 -25886353#2 -25886353#1 -25886353#0 28688814#4 28688815#0 28688815#1 28688815#2 32395297 153626174#0 153626174#1 153626174#2 -28431826 -28431821 -141771617 24216056 152219432 152219434 -113208018#4 -113208018#3 -113208018#2 -113208018#1 -113208018#0 31013442#0 31013442#1 -175489523 -175489522 -26192507#3 -26192507#2 -26192507#1 -26192507#0 -61316312#10 -61316312#9 -61316312#8 -61316312#7 -61316312#6 -61316312#5 -61316312#4 -61316312#3 -61316312#2 -61316312#1 -61316312#0 -24821636#8 -24821636#7 -24821636#6 -24821636#5 -24821636#4 25839820#0 25839820#1 25886701 -27681423 27140639#3 27140640#1 -24821636#1 -24821636#0 24821635#3 23063466 263228823 202544674#0 202544674#1 202544674#2 -23063463#0 23063317 263224089 -263224108 -23063464#2 -23063464#1 -23063464#0"/>
    </vehicle>
    <vehicle id="3" depart="3.00">
        <route edges="-77339033#7 77339033#7 77339033#8 77339033#9 112284171#0 112284171#1 112284171#2 112284171#3 24347927#0 24347927#1 24347927#2 24347927#3 24347927#4 24347927#5 24347927#6 24347927#7 24347927#8 24347927#9 24347927#10 32241217#0 32241217#1 32241217#2 32241217#3 32241217#4 32241217#5 32241217#6 26089271 255501750 255501563 255501564 32241560#0 32241560#1 32241559#0 32241559#1 32241559#2 32241559#3 32241559#4 32241559#5 32241559#6 32241559#7 31695549#0 31695549#1 31695549#2 31695549#3 31695549#4 31695549#5 31695549#6 31695549#7 31695549#8 31695549#9 31695549#10 31554157 34747248#0 34747248#1 34747248#2 34747248#3 34747248#4 34747248#5 34747248#6 75888878 22951430#2 233756815 127096495 127096496 10304127 10304072 233756816 233756813 19207097 33062782 28060637 9383894#0 9383894#1 191675408 191675407 -4498896 -4830873#4 -4830873#3 -4830873#2 -4830873#1 -4830873#0 9082287#0 9082287#1 9082287#2 223347428 223347429#0 223347429#1 44127593 13529519#0 13529519#1 13529519#2 44127591#0 44127591#1 44127591#2 44127591#3 44127591#4 44127591#5 44127591#6 44127591#7 44127591#8 44127591#9 44127591#10 44127591#11 44127591#12 44127591#13 44127591#14 44127591#15 44127591#16"/>
    </vehicle>
    <vehicle id="4" depart="4.00">
        <route edges="-23063319#1 23063319#1 23063316 -263224089 -23063317 23063463#0 -202544674#2 -202544674#1 -202544674#0 -263228823 -23063466 24821635#0 24821635#1 24821635#2 24821636#0 24821636#1 -27140640#1 -27140639#3 27681423 -25886701 -25839820#1 -25839820#0 24821636#4 24821636#5 24821636#6 24821636#7 24821636#8 61316312#0 61316312#1 61316312#2 61316312#3 61316312#4 61316312#5 61316312#6 61316312#7 61316312#8 61316312#9 61316312#10 26192507#0 26192507#1 26192507#2 26192507#3 175489522 175489523 -31013442#1 -31013442#0 113208018#0 113208018#1 113208018#2 113208018#3 24496314"/>
    </vehicle>
    <vehicle id="5" depart="5.00">
        <route edges="-17595258#1 17595258#1 -32014862#2 -32014862#1 -32238812#1 -32238812#0 -270888635#3 -270888635#2 -270888635#1 -270888635#0 -270888634#3 -270888634#2 -270888634#1 -270888634#0 -32238811#15 -32238811#14 -32238811#13 -32238811#12 -32238811#11 -32238811#10 -32238811#9 -32238811#8 -32238811#7 -32238811#6 -32238811#5 -32238811#4 -32238811#3 -32238811#2 -32238811#1 -32238811#0 -9467858#10 -9467858#9 -9467858#8 -9467858#7 -9467858#6 -9467858#5 -9467858#4 -9467858#3 -9467858#2 -9467858#1 -9467858#0 -35215789#6 -35215789#5 -35215789#4 -35215789#3 -35215789#2 -35215789#1 -35215789#0 -29081526 28515072 28515074#0 28515074#1 138913517 32238520#0 32238520#1 32238520#2 -268161989#8 -268161989#7 -268161989#6 -268161989#5 -268161989#4 -268161989#3 -268161989#2 -268161989#1 -268161989#0 -268161990 -4857563 4866517 13245020#0 13245020#1 13245020#2 13245020#3 13245258 268161994#0 268161994#1 27894918 27873066 27873067 268161979 20113240 20113236 268161988 25370118 149817638#0 149817638#1 13295671 27873194#0 27873194#1 25370120 9861419#0 9861419#1 9861419#2 -270888651 24471898 120415547#0 42157141#5 42157141#6 42157141#7"/>
    </vehicle>
    <vehicle id="6" depart="6.00">
        <route edges="8113575 233743108 233729017 233729018 46894423 191964500 233729020 233729021 4742262 46894425 191964499 46894426 233743107 233729019 19796596 233729022 24867946 44699694 44699695 233743097 233743098 233743100 233743099 22459710 22459696 22459683 22459649 22459736#0 22459736#1 22459736#2 28197411 28197409 220935386 221032822 28197389 28197386 18505076 154212257#0 154212257#1 154212257#2 28197254 28197253 28197203 28197204 24546183 28196993 28196986#0 22820305#0 22820305#1 25370126#1 155441555#0 155441555#1 192029955 192029956 192034805 -264094864#1 -264094864#0 -264094859 -264094858 -264094863 -10808258 8902679 263148510#0 263148510#1 24273271 24273272 263148636 263148637 263148639 263148638#0 263148638#1 31695554 263148640 263148641 9473069#2 9473069#3 9473069#4 9473069#0 24272872#0 -24272872#0"/>
    </vehicle>
    <vehicle id="7" depart="7.00">
        <route edges="-257844356#0 257844356#0 257844356#1 238825353 238825354#0 238825354#1 37216359 32243973#0 32243973#1 -32243972#1 -32243972#0 -22795974#1 -22795974#0 -22795973 -35389032#7 -35389032#6 -35389032#5 -35389032#4 -35389032#3 -35389032#2 -35389032#1 -35389032#0 -62234720#1 -62234720#0 -27201722 -263148494#4 -263148494#3 -263148494#2 -263148494#1 -263148494#0 -31281769#1 -31281769#0 9389037#0 9389037#1 9389037#2 9389037#3 -249389023 -22981748 -22981747 -31464610#10 -31464610#9 -31464610#8 -31464610#7 -31464610#6 -31464610#5 -31464610#4 -31464610#3 -31464610#2 -31464610#1 -31464610#0 -28420473 -4857557 -23953588 23953587 32010241#0 32010241#1 10795363#0 10795363#1 8892302 23953105#0 23953105#1 23953105#2 23953105#3 23953105#4 249393125#0 249393125#1 249393125#2 249393125#3 249393125#4 249393125#5 -35215786#18 -35215786#17 -35215786#16 -35215786#15 -35215786#14 -35215786#13 -35215786#12 -35215786#11 -35215786#10 -35215786#9 -35215786#8 -35215786#7 -35215786#6 -35215786#5 -35215786#4 -35215786#3 -35215786#2 -35215786#1 -35215786#0 -32131471 -191825094#1 -191825094#0 -32047372 13245020#0 13245020#1 13245020#2 13245020#3 35222994 268161991#0 268161991#1 -32044701#7 -32044701#6 -32044701#5 -32044701#4 -32044701#3 -32044701#2 -32044701#1 -32044701#0 -32044527#7 -32044527#6 -32044527#5 -32044527#4 -32044527#3 -32044527#2 -32044527#1 -32044527#0 -31548888#9 -31548888#8 -31548888#7 -31548888#6 -31548888#5 -31548888#4 -31548888#3 -31548888#2 -31548888#1 -31548888#0 -4857296#18 -4857296#17 -22721299#2 -22721299#1 -22721299#0 -32397297 32397297"/>
    </vehicle>
    <vehicle id="8" depart="8.00">
        <route edges="27873192 4448132#0 4448132#1 149817640 25370117 268161987 20113272 20113264 268161986 27873059 29066569 268161985 27873056 268161984 28060678 28060681 4498902#0 4498902#1 135459834 30610886 30610887 28060635 28060638 135459835 135459836 49524608 34429047 233756818 10304124 10304125 233756814 127096494 127096497 233756819 22958773#0 23167167#0 23167167#1 -34747248#8 -34747248#7 -34747248#6 -34747248#5 -34747248#4 -34747248#3 -34747248#2 -34747248#1 -34747248#0 -31554157 -31695549#10 -31695549#9 -31695549#8 -31695549#7 -31695549#6 -31695549#5 -31695549#4 -31695549#3 -31695549#2 -31695549#1 -31695549#0 -32241559#7 -32241559#6 -32241559#5 -32241559#4 -32241559#3 -32241559#2 -32241559#1 -32241559#0 -32241560#1 -32241560#0 -255501564 -255501563 -255501750 -26089271 -32241217#6 -32241217#5 -32241217#4 -32241217#3 -32241217#2 -32241217#1 -32241217#0 -24347927#10 -24347927#9 -24347927#8 -24347927#7 -24347927#6 -24347927#5 -24347927#4 -24347927#3 -24347927#2 -24347927#1 -24347927#0 -32241216#5 -32241216#4 -32241216#3 -32241216#2 -32241216#1 -32241216#0 -276984058#1 -276984058#0 -24347926#2 -24347926#1 -24347926#0 -61316304 -130334455 -29068954#1"/>
    </vehicle>
    <vehicle id="9" depart="9.00">
        <route edges="-156963707 -156963708#0 4396690#5 10619302#0 28796772#0 28796772#1 -30159248#0 -4396688#8 -4396688#7 -4396688#6 -4396688#5 -4396688#4 -4396688#3 -4396688#2 -4396688#1 -4396688#0 -160477421 160477420 234781974 234781975#0 234781975#1 28060635 28060638 135459835 135459836 49524608 34429047 233756818 10304124 10304125 233756814 127096494 127096497 233756819 22958773#0 23167167#0 23167167#1 -34747248#8 -34747248#7 -34747248#6 -34747248#5 -34747248#4 -34747248#3 -34747248#2 -34747248#1 -34747248#0 -31554157 -31695549#10 -31695549#9 -31695549#8 -31695549#7 -31695549#6 -31695549#5 -31695549#4 -31695549#3 -31695549#2 -31695549#1 -31695549#0 -32241559#7 -32241559#6 -32241559#5 -32241559#4 -32241559#3 -32241559#2 -32241559#1 -32241559#0 -32241560#1 -32241560#0 -255501564 -255501563 -255501750 -26089271 -32241217#6 -32241217#5 -32241217#4 -32241217#3 -32241217#2 -32241217#1 -32241217#0 -24347927#10 -24347927#9 -24347927#8 -24347927#7 -24347927#6 -24347927#5 -24347927#4 -24347927#3 -24347927#2 -24347927#1 -24347927#0 -112284171#3 -112284171#2 -112284171#1 -112284171#0 -77339033#9 -77339033#8 -77339033#7 -77339033#6 -77339033#5 -77339033#4 -77339033#3 -77339033#2 -77339033#1 -77339033#0 -26280707#1 -26280707#0"/>
    </vehicle>
    <vehicle id="11" depart="11.00">
        <route edges="-26125309#0 26125308 29068954#1 130334455 61316304 24347926#0 24347926#1 24347926#2 276984058#0 276984058#1 32241216#0 32241216#1 32241216#2 32241216#3 32241216#4 32241216#5 24347927#0 24347927#1 24347927#2 24347927#3 24347927#4 24347927#5 24347927#6 24347927#7 24347927#8 24347927#9 24347927#10 155762957 155762960#1 -25452894#12 -25452894#11 -25452894#10 -25452894#9 -25452894#8 -25452894#7 -25452894#6 -25452894#5 -25452894#4 -25452894#3 -25452894#2 -25452894#1 -25452894#0 26301018#2 26301018#3 -130338127#2 -130338127#1 -130338127#0 -130338128#1 -130338128#0 -24493490#3 -24493490#2 -24493490#1 -24493490#0 9887940#0 9887940#1 130207731 130684514#0 130684514#1 -130684515 -107585067#2 -107585067#1 -107585067#0 -107585068 -140530261#2 -140530261#1 -140530261#0 19828827 4742002#2 106049975 -130208552#1 -130208552#0 -130208548#7 -130208548#6 -130208548#5 -130208548#4 25505164#1 25505164#2 25505164#3 25505164#4 25505164#5 25505164#6 25505164#7 25505164#8 25505164#9 25505164#10 25505164#11 25505164#12 19795652#5 19795652#6 19795652#7 19795652#8 19795652#9 19795652#10 19795652#11 19795652#12 19795652#13 -134153926#2 -134153926#1 -134153926#0 -34898462 -34898463#2 -34898463#1 -34898463#0 -9481384 -9481374#2 -9481374#1 -9481374#0 -9888542#1 -9888542#0 -34908740 -61382343 -9888567#1 -9888567#0"/>
    </vehicle>
    <vehicle id="12" depart="12.00">
        <route edges="27705571#0 27705571#1 29050936#0 29050936#1 27705571#4 175489520#5 175489520#6 -252887951#19 -252887951#18 -252887951#17 -252887951#16 -252887951#15 -252887951#14 -252887951#13 -252887951#12 -252887951#11 -252887951#10 -252887951#9 -252887951#8 -252887951#7 -252887951#6 -252887951#5 -252887951#4 -252887951#3 -252887951#2 -252887951#1 -252887951#0 15803351 15803349#5 15803349#6 15803349#0 252887935 -252887940#25 -252887940#24 -252887940#23 -252887940#22 -252887940#21 -252887940#20 -252887940#19 -252887940#18 -252887940#17 -252887940#16 -252887940#15 -252887940#14 -252887940#13 -252887940#12 -252887940#11 -252887940#10 -252887940#9 -252887940#8 -252887940#7 -252887940#6 -252887940#5 -252887940#4 -252887940#3 -252887940#2 -252887940#1 -252887940#0 -40852540#3 -40852540#2 -40852540#1 -40852540#0 -40852539#13 -40852539#12 -40852539#11 -40852539#10 -40852539#9 -40852539#8 -40852539#7 -40852539#6 -40852539#5 -40852539#4 -40852539#3 -40852539#2 -40852539#1 -40852539#0 -76851154#3 -76851154#2 -76851154#1 -76851154#0 -32238513 -32238509#1 -32238509#0 -35215789#23 -35215789#22 -35215789#21 -35215789#20 -35215789#19 -35215789#18 -35215789#17 -35215789#16 -35215789#15 -35215789#14 -35215789#13 -35215789#12 -35215789#11 -35215789#10 -35215789#9 -35215789#8 -35215789#7 -35215789#6 -35215789#5 -35215789#4 -35215789#3 -35215789#2 -35215789#1 -35215789#0 -29081526 28515072 28515074#0 28515074#1 138913517 32238520#0 32238520#1 32238520#2 -268161989#8 -268161989#7 -268161989#6 -268161989#5 -268161989#4 -268161989#3 -268161989#2 -268161989#1 -268161989#0 -268161990 -4857563 4866517 13245020#0 13245020#1 13245020#2 13245020#3 13245258 268161994#0 268161994#1 27894918 27873066 27873067 268161979 20113240 20113236 268161988 25370118 149817638#0 149817638#1 13295671 27873194#0 9861421 270888560#7 270888560#8 270888560#9 270888560#10 270888560#11 270888560#12 270888560#13 270888560#14 270888560#15 31285837#0 31285837#1 31285837#2 31285837#3 31285837#4 31285837#5 31285837#6 -31301443#1 -31301443#0"/>
    </vehicle>
    <vehicle id="13" depart="13.00">
        <route edges="-15407666 -28774992#8 -28774992#7 -28774992#6 -28774992#5 -28774992#4 -28774992#3 -28774992#2 -28774992#1 -28774992#0 37416756#0 37416756#1 37416756#2 37416756#3 37416756#4 37416756#5 280303829 151227829 31344998#0 31344998#1 10438709 280303823 280303845 10438706 270888501 280303819#0 241186717#0 241186717#1 -241186716#0 280303819#3 280303815 23954517#0 23954517#1 23954517#2 23954516#0 23954516#1 23954516#2 23954516#3 4830866 31281770#0 31281770#1 28527257#0 28527257#1 31281772#0 31281772#1 10795365 9606812 23953588 4857557 28420473 31464610#0 31464610#1 31464610#2 31464610#3 31464610#4 31464610#5 31464610#6 31464610#7 31464610#8 31464610#9 -270888724 -35675806#6 -35675806#5 -35675806#4 -26361940#3 -26361940#2 -26361940#1 4877520#0 4877520#1 -25011271#0 32011789 22516345 19210724#0 19210724#1 19210724#2 19210724#3 17609328 255497836 255497837#0 255497837#1 255497837#2 255497837#3 255497837#4 255497837#5 255497837#6 255497837#7 255497837#8 255497837#9 255497837#10 255497837#11 255497837#12 255497837#13 255497837#14 255497837#15 255497837#16 59207810 59207809#0 59207809#1 24647777#0 24647777#1 24647765#0 24647765#1 24647765#2 24647765#3 24647765#4 24647765#5 24647782#0 24647782#1"/>
    </vehicle>
    <vehicle id="14" depart="14.00">
        <route edges="270888560#15 31285837#0 31285837#1 31285837#2 31285837#3 31285837#4 31285837#5 31285837#6 31285837#7 31285837#8 31285837#9 31285837#10 31285837#11 31285837#12 31285837#13 31285837#14 31285837#15 31285837#16 31285837#17 31285837#18 31285837#19 31285837#20 31285837#21 31285837#22 31285837#23 31285837#24 31285837#25 31285837#26 -270888641#10 -270888641#9 -270888641#8 -270888641#7 -270888641#6 -270888641#5 28508398"/>
    </vehicle>
    <vehicle id="15" depart="15.00">
        <route edges="-152219438#2 -152219438#1 -152219438#0 -154530053 -152219440 -9330954#1 -9330954#0 4857296#0 4857296#1 4857296#2 4857296#3 4857296#4 4857296#5 4857296#6 4857296#7 4857296#8 4857296#9 4857296#10 4857296#11 4857296#12 4857296#13 4857296#14 4857296#15 4857296#16 4857296#17 4857296#18 31548888#0 31548888#1 31548888#2 31548888#3 31548888#4 31548888#5 31548888#6 31548888#7 31548888#8 31548888#9 32044527#0 32044527#1 32044527#2 32044527#3 32044527#4 32044527#5 32044527#6 32044527#7 32044701#0 32044701#1 32044701#2 32044701#3 32044701#4 32044701#5 32044701#6 32044701#7 268161992#0 268161992#1 32131475#0 32131475#1 32044818#0 32044818#1 25370114#0 25370114#1 27873068 268161985 27873056 268161984 28060678 28060681 4498902#0 4498902#1 135459834 30610886 30610887 28060635 28060638 135459835 135459836 49524608 34429047 233756818 10304124 10304125 233756814 127096494 127096497 233756817 28060599 28060601 127096187 127096191 233753019 127095837 127095839 123323236 123323238 31545550 102908853 233753018 233753016 102908849 102908878 102908857 102908851 102908875#0 102908875#1 102908873 233744331 9471226 184705240 233744339 222718169 225708823 222718167 31345000#0 31345000#1 31345000#2 25445851 25445848 22463147 124315102#0 -26806791 -26806790#2 -26806790#1 -26806790#0 -26806247 -31550499#2 -31550499#1 25050215#0 25050215#1 25050215#2 -25050215#2"/>
    </vehicle>
    <vehicle id="16" depart="16.00">
        <route edges="-10241211#2 10241211#2 230206628 230206632#0 230206632#1 230206632#2 243514566 31465190#0 29217884 243556025#1 31465187#2 31465187#3 31465187#4 24867950 4448107#0 4448107#1 24384499 25370124 27927933 27927938 29066536#0 29066536#1 28196918 28196919 28196914 28196917 23957710 28196910 28060734 28060737 28060714 28060715#0 28060715#1 28196831 31464703 27873192 4448132#0 4448132#1 149817640 25370117 268161987 20113272 20113264 268161986 27873059 29066569 268161985 27873056 268161984 28060678 28060681 4498902#0 4498902#1 135459834 30610886 30610887 28060635 28060638 135459835 135459836 49524608 34429047 233756818 10304124 10304125 233756814 127096494 127096497 233756817 28060599 28060601 127096187 127096191 233753019 127095837 127095839 123323236 123323238 31545550 102908853 233753018 233753016 102908849 102908878 102908857 102908851 102908875#0 102908875#1 102908873 233744331 9471226 184705240 233744339 222718169 225708823 222718167 31345000#0 31345000#1 31345000#2 31345000#3 124315107#0 124315107#1 124315107#2 124315104 -133654158#1 -133654158#0 22284480 26785762 31550500#0 31550500#1 31550500#2 31550500#3 31550500#4"/>
    </vehicle>
    <vehicle id="17" depart="17.00">
        <route edges="32014862#1 -32014862#1 -32238812#1 -32238812#0 -270888635#3 -270888635#2 -270888635#1 -270888635#0 -270888634#3 -270888634#2 -270888634#1 -270888634#0 -32238811#15 -32238811#14 -32238811#13 -32238811#12 -32238811#11 -32238811#10 -32238811#9 -32238811#8 -32238811#7 -32238811#6 -32238811#5 -32238811#4 -32238811#3 -32238811#2 -32238811#1 -32238811#0 -9467858#10 -9467858#9 -9467858#8 -9467858#7 -9467858#6 -9467858#5 -9467858#4 -9467858#3 -9467858#2 -9467858#1 -9467858#0 -35215789#6 -35215789#5 -35215789#4 -35215789#3 -35215789#2 -35215789#1 -35215789#0 -29081526 28515072 28515074#0 28515074#1 138913517 32238520#0 32238520#1 32238520#2 -268161989#8 -268161989#7 -268161989#6 -268161989#5 -268161989#4 -268161989#3 -268161989#2 -268161989#1 -268161989#0 -268161990 -4857563 4866517 13245020#0 13245020#1 13245020#2 13245020#3 35222994 268161991#0 268161991#1 -32044701#7 -32044701#6 -32044701#5 -32044701#4 -32044701#3 -32044701#2 -32044701#1 -32044701#0 -32044527#7 -32044527#6 -32044527#5 -32044527#4 -32044527#3 -32044527#2 -32044527#1 -32044527#0 -31548888#9 -31548888#8 -31548888#7 -31548888#6 -31548888#5 -31548888#4 -31548888#3 -31548888#2 -31548888#1 -31548888#0 -4857296#18 -4857296#17 -4857296#16 -4857296#15 -4857296#14 -4857296#13 -4857296#12 -4857296#11 -4857296#10 -4857296#9 -4857296#8 -4857296#7 -4857296#6 -4857296#5 -4857296#4 -4857296#3 -4857296#2 -4857296#1 -4857296#0 4866959 32011789 22516345 19210724#0 19210724#1 19210724#2 19210724#3 17609328 255497836 255497837#0 255497837#1 255497837#2 255497837#3 255497837#4 255497837#5 255497837#6 255497837#7 255497837#8 255497837#9 255497837#10 255497837#11 255497837#12 255497837#13 255497837#14 255497837#15 255497837#16 59207810 59207809#0 59207809#1 24647777#0 24647777#1 24647765#0 24647765#1 24647765#2 24647765#3 24647765#4 24647765#5 24647782#0 24647782#1 -23901726#1 -23901726#0 -23901725#4 -32974677#2 32974677#2"/>
    </vehicle>
    <vehicle id="18" depart="18.00">
        <route edges="8085262 -8085262 -8085267#1 -8085267#0 -8085257#2 -8085257#1 -8085257#0 -28774992#8 -28774992#7 -28774992#6 -28774992#5 -28774992#4 -28774992#3 -28774992#2 -28774992#1 -28774992#0 37416756#0 37416756#1 37416756#2 37416756#3 37416756#4 37416756#5 280303829 151227829 31344998#0 31344998#1 10438709 280303823 280303845 10438706 270888501 280303819#0 241186717#0 241186717#1 -241186716#0 280303819#3 280303815 23954517#0 23954517#1 23954517#2 23954516#0 23954516#1 23954516#2 23954516#3 4830866 31281770#0 31281770#1 28527257#0 28527257#1 31281772#0 31281772#1 10795365 9606812 23953588 4857557 28420473 31464610#0 31464610#1 31464610#2 31464610#3 31464610#4 31464610#5 31464610#6 31464610#7 31464610#8 31464610#9 31464610#10 22981747 22981748 249389023 270888539#0 270888539#1 263148496 8894795 263148497#0 263148497#1 263148497#2 263148497#3 4856939#0 4856939#1 263148498 126250562#0 126250562#1 28770802#0 28770802#1 31301026 263148500#0 263148500#1 263148500#2 28770816 270888532 263148504#0 263148504#1 263148504#2 263148504#3 263148504#4 263148504#5 263148504#6 263148505#0 263148505#1 263148507 28770827 263148508#0 263148508#1 263148508#2 263148508#3 263148509#0 263148509#1 8902679 263148510#0 263148510#1 24273271 24273272 263148636 263148637 263148639 263148638#0 263148638#1 31695554 263148640 263148641 9473069#2 9473069#3 24273218 270888534 252379935 24273219 270888537#0 270888537#1 263148642#0 263148642#1 263148642#2 263148643 -263148643"/>
    </vehicle>
    <vehicle id="19" depart="19.00">
        <route edges="114542614#1 114542614#2 114542614#3 270888653#0 270888653#1 238007446 238007447 24882150 8903109#0 8903109#1 8903109#2 8903109#3 8903109#4 8903109#5 31301025#0 31301025#1 31301025#2 23901369#1 23901369#2 28914236#0 28914236#1 28914236#2 28914236#3 31692689 31692690#0 31692690#1 31692690#2 31692690#3 31692690#4 28770816 9858941#0 9858941#1 9858941#2 270888599#0 23898307#0 23898307#1 23898307#2 23898307#3 23898307#4 23898307#5 23898307#6 23898307#7 23898307#8 23898307#9 23898130#12 23898130#13 -270888642#3 23894440#0 23894440#1"/>
    </vehicle>
    <vehicle id="20" depart="20.00">
        <route edges="26192513 -26192513 -10871354#2 -10871354#1 -10871354#0 -10871355 -9469928#2 -9469928#1 -9469928#0 61316306 23639768#0 23639768#1 23639768#2 23639768#3 263221393 192591551 192591553 -9860225#8 -9860225#7 -9860225#6 -9860225#5 -9860225#4"/>
    </vehicle>
    <vehicle id="21" depart="21.00">
        <route edges="-24057981#4 -24057981#3 -24057981#2 -24057981#1 -24057981#0 -255497837#11 -255497837#10 -255497837#9 -255497837#8 -255497837#7 -255497837#6 -255497837#5 -255497837#4 -255497837#3 -255497837#2 -255497837#1 -255497837#0 -255497836 -17609328 -19210724#3 -19210724#2 -19210724#1 -19210724#0 -22516345 -32011789 -4866959 4857296#0 4857296#1 4857296#2 4857296#3 4857296#4 4857296#5 4857296#6 4857296#7 4857296#8 4857296#9 4857296#10 4857296#11 4857296#12 4857296#13 4857296#14 4857296#15 4857296#16 4857296#17 4857296#18 31548888#0 31548888#1 31548888#2 31548888#3 31548888#4 31548888#5 31548888#6 31548888#7 31548888#8 31548888#9 -32015580#5 -32015580#4 10227622#0 17600127 -4866418#3 -4866418#2 -4866418#1 -4866418#0 -32238809 -82938049#2 -82938049#1 -82938049#0 -32044526#2 -32044526#1 -32044526#0 -32014860#9 -32014860#8 -32014860#7 -32014860#6 -32014860#5 -32014860#4 -32014860#3 -32014860#2 -32014860#1 -32014860#0 -32014859 -198279467#3 -198279467#2 -198279467#1 198279467#1"/>
    </vehicle>
    <vehicle id="22" depart="22.00">
        <route edges="-23898498#0 270888599#7 -24273484#2 -24273484#1 -24216327 32243968#0 32243968#1 32243968#2 32243968#3 32243968#4 32243968#5 32243968#6 -172304962#2 -172304962#1 -172304962#0 -263148495#4 -263148495#3 -263148495#2 -263148495#1 -263148495#0 -4856811#1 -4856811#0 -263148496 -270888539#1 -270888539#0 -249389023 -22981748 -22981747 -31464610#10 -31464610#9 -31464610#8 -31464610#7 -31464610#6 -31464610#5 -31464610#4 -31464610#3 -31464610#2 -31464610#1 -31464610#0 -28420473 -4857557 -23953588 23953587 32010241#0 32010241#1 10795363#0 10795363#1 8892302 23953105#0 23953105#1 23953105#2 23953105#3 23953105#4 249393125#0 249393125#1 249393125#2 249393125#3 249393125#4 249393125#5 -35215786#18 -35215786#17 -35215786#16 -35215786#15 -35215786#14 -35215786#13 -35215786#12 -35215786#11 -35215786#10 -35215786#9 -35215786#8 -35215786#7 -35215786#6 -35215786#5 -35215786#4 -35215786#3 -35215786#2 -35215786#1 -35215786#0 -32131471 -191825094#1 -191825094#0 -32047372 -4866517 4857563 268161990 268161989#0 268161989#1 268161989#2 268161989#3 268161989#4 268161989#5 268161989#6 268161989#7 268161989#8 -32238520#2 -32238520#1 -32238520#0 -138913518 28515071 138913516#0 138913516#1 4885499 29081526 35215789#0 35215789#1 35215789#2 35215789#3 35215789#4 35215789#5 35215789#6 16117189#0"/>
    </vehicle>
    <vehicle id="23" depart="23.00">
        <route edges="24647765#5 -24647765#5 -24647765#4 -24647765#3 -24647765#2 -24647765#1 -24647765#0 -24647777#1 -24647777#0 -59207809#1 -59207809#0 -59207810 -255497837#16 -255497837#15 -255497837#14 -255497837#13 -255497837#12 -255497837#11 -255497837#10 -255497837#9 -255497837#8 -255497837#7 -255497837#6 -255497837#5 -255497837#4 -255497837#3 -255497837#2 -255497837#1 -255497837#0 -255497836 -17609328 -19210724#3 -19210724#2 -19210724#1 -19210724#0 -22516345 -32011789 -4866959 4857296#0 4857296#1 4857296#2 4857296#3 4857296#4 4857296#5 4857296#6 4857296#7 4857296#8 4857296#9 4857296#10 4857296#11 4857296#12 4857296#13 4857296#14 4857296#15 4857296#16 4857296#17 4857296#18 31548888#0 31548888#1 31548888#2 31548888#3 31548888#4 31548888#5 31548888#6 31548888#7 31548888#8 31548888#9 32044527#0 32044527#1 32044527#2 32044527#3 32044527#4 32044527#5 32044527#6 32044527#7 32044701#0 32044701#1 32044701#2 32044701#3 32044701#4 32044701#5 32044701#6 32044701#7 268161992#0 268161992#1 32131475#0 32131475#1 32044818#0 32044818#1 25370114#0 25370114#1 27873068 268161985 27873056 268161984 28060678 28060681 4498902#0 4498902#1 135459834 30610886 30610887 28060635 28060638 135459835 135459836 49524608 34429047 233756818 10304124 10304125 233756814 127096494 127096497 233756819 22958773#0 23167167#0 23167167#1 -34747248#8 -34747248#7 -34747248#6 -34747248#5 -34747248#4 -34747248#3 -34747248#2 -34747248#1 -34747248#0 -31554157 -31695549#10 -31695549#9 -31695549#8 -31695549#7 -31695549#6 -31695549#5 -31695549#4 -31695549#3 -31695549#2 -31695549#1 -31695549#0 8905251#0 8905251#1 -23227520#7"/>
    </vehicle>
    <vehicle id="24" depart="24.00">
        <route edges="-22796563#0 -32240186#0 12299884#0 12299884#1 12299884#2 12299884#3 32240187#0 32240187#1 32240187#2 32240187#3 32240187#4 32240187#5 32240187#6 32240187#7 28774999#11 210394890 123323551#0 123323551#1 123324762 220914849 123327123 123327114 123592331 123592328 123591950#0 123591950#1 123591954 25370336 263701434 123322863 123379959 123379961 28197391 221032822 28197389 28197386 18505076 154212257#0 18505407 -243686966#4 -243686966#3 -243686966#2 -243686966#1 -243686966#0 -32243976#1 -32243976#0 -32243972#1 23761234 23761233#2 23761648#0 23761648#1 23761648#2 23761648#3 23761648#4 23761624 -23761621#11 -23761625#8 -23761625#7 23761634"/>
    </vehicle>
    <vehicle id="25" depart="25.00">
        <route edges="10136128#8 -10136128#8 -10136128#7 -10136128#6 -10136128#5 -10136128#4 -10136128#3 -10136128#2 -10136128#1 -10136128#0 263148505#1 263148507 28770827 263148508#0 263148508#1 263148508#2 263148508#3 263148509#0 263148509#1 10808258 192029085#0 192029085#1 233727754 22820304 192029951 192029957 192029954 192029946#1 24511111 24834806 24834807 24511105 25673325 24511107 24586728 250500368 10136450 24586723 -25671346#2 -25671346#1 -25671346#0 -24654357#3 -24654357#2 -24654357#1 -24654357#0 24654353#0 24654353#1 24654353#2 -28310897#1 -28310897#0"/>
    </vehicle>
    <vehicle id="26" depart="26.00">
        <route edges="-281036978 -281036979 -26839457 -32244418 -23938601#1 -23938601#0 -243686966#8 -243686966#7 -243686966#6 -243686966#5 -243686966#4 -243686966#3 -243686966#2 -243686966#1 -243686966#0 -32243976#1 -32243976#0 -32243972#1 -32243972#0 -22795974#1 -22795974#0 -22795973 -35389032#7 -35389032#6 -35389032#5 -35389032#4 -35389032#3 -35389032#2 -35389032#1 -35389032#0 -62234720#1 -62234720#0 24216328#0 24216328#1 -270888599#7 -270888599#6 -270888599#5 -270888599#4 -270888599#3 -270888599#2 -270888599#1 -270888599#0 -9858941#2 -9858941#1 -9858941#0 -28770816 -263148500#2 -263148500#1 -263148500#0 -31301026 8904316#0 8904316#1 8904316#2 8904316#3 40695737 270888517#0 270888517#1 270888517#2 270888517#3 270888517#4 24681579#0 24681579#1 24681579#2 24681579#3 24681579#4 24681579#5 24681579#6 24681579#7 24681579#8 24537551#0 24537551#1 24537551#2 24537551#3 24537551#4 24537551#5 -24537551#5"/>
    </vehicle>
    <vehicle id="27" depart="27.00">