<?xml version="1.0"?>
<!-- generated on 2015-02-09 18:26:55.650433 by $Id: randomTrips.py 17235 2014-11-03 10:53:02Z behrisch $
  options: -n oldenburg.net.xml -e 50 -l -r oldenburg.rou.xml
-->
<trips>
    <trip id="0" depart="0.00" from="18494048#1" to="113208018#0" />
    <trip id="1" depart="1.00" from="24654352#0" to="133654158#1" />
    <trip id="2" depart="2.00" from="31112781#1" to="-23063464#0" />
    <trip id="3" depart="3.00" from="-77339033#7" to="44127591#16" />
    <trip id="4" depart="4.00" from="-23063319#1" to="24496314" />
    <trip id="5" depart="5.00" from="-17595258#1" to="42157141#7" />
    <trip id="6" depart="6.00" from="8113575" to="-24272872#0" />
    <trip id="7" depart="7.00" from="-257844356#0" to="32397297" />
    <trip id="8" depart="8.00" from="27873192" to="-29068954#1" />
    <trip id="9" depart="9.00" from="-156963707" to="-26280707#0" />
    <trip id="10" depart="10.00" from="19729104#12" to="-280529203#3" />
    <trip id="11" depart="11.00" from="-26125309#0" to="-9888567#0" />
    <trip id="12" depart="12.00" from="27705571#0" to="-31301443#0" />
    <trip id="13" depart="13.00" from="-15407666" to="24647782#1" />
    <trip id="14" depart="14.00" from="270888560#15" to="28508398" />
    <trip id="15" depart="15.00" from="-152219438#2" to="-25050215#2" />
    <trip id="16" depart="16.00" from="-10241211#2" to="31550500#4" />
    <trip id="17" depart="17.00" from="32014862#1" to="32974677#2" />
    <trip id="18" depart="18.00" from="8085262" to="-263148643" />
    <trip id="19" depart="19.00" from="114542614#1" to="23894440#1" />
    <trip id="20" depart="20.00" from="26192513" to="-9860225#4" />
    <trip id="21" depart="21.00" from="-24057981#4" to="198279467#1" />
    <trip id="22" depart="22.00" from="-23898498#0" to="16117189#0" />
    <trip id="23" depart="23.00" from="24647765#5" to="-23227520#7" />
    <trip id="24" depart="24.00" from="-22796563#0" to="23761634" />
    <trip id="25" depart="25.00" from="10136128#8" to="-28310897#0" />
    <trip id="26" depart="26.00" from="-281036978" to="-24537551#5" />
    <trip id="27" depart="27.00" from="24386534#0" to="4888752#0" />
    <trip id="28" depart="28.00" from="24944159#2" to="-22653221" />
    <trip id="29" depart="29.00" from="-42872879" to="24511101" />
    <trip id="30" depart="30.00" from="-24244072#0" to="-270888560#15" />
    <trip id="31" depart="31.00" from="-61316307" to="22729543#0" />
    <trip id="32" depart="32.00" from="82284349#4" to="-25407424" />
    <trip id="33" depart="33.00" from="172304962#2" to="32241563" />
    <trip id="34" depart="34.00" from="-24057981#7" to="28688815#1" />
    <trip id="35" depart="35.00" from="24008071" to="-28310897#0" />
    <trip id="36" depart="36.00" from="28688815#1" to="-33062574" />
    <trip id="37" depart="37.00" from="23406740" to="31712722#1" />
    <trip id="38" depart="38.00" from="263221393" to="28197253" />
    <trip id="39" depart="39.00" from="-61316310#2" to="19207262#1" />
    <trip id="40" depart="40.00" from="9888222#1" to="-24960460#0" />
    <trip id="41" depart="41.00" from="32238812#3" to="-27656145" />
    <trip id="42" depart="42.00" from="81373729#4" to="24964886" />
    <trip id="43" depart="43.00" from="11692135#0" to="61316332#2" />
    <trip id="44" depart="44.00" from="31692688#1" to="-22991391#3" />
    <trip id="45" depart="45.00" from="-61316305#1" to="-175489524" />
    <trip id="46" depart="46.00" from="-24569915" to="-25671337" />
    <trip id="47" depart="47.00" from="-26803667" to="26557449#1" />
    <trip id="48" depart="48.00" from="10311169" to="26250597#0" />
    <trip id="49" depart="49.00" from="24803606#0" to="-264688757#2" />
</trips>